Version 4
SHEET 1 880 680
SYMBOL npn 160 176 R0
SYMATTR InstName Q1
