Version 4
SHEET 1 880 680
WIRE 352 64 320 64
WIRE 496 64 432 64
WIRE -96 80 -160 80
WIRE 32 80 -16 80
WIRE 80 80 32 80
WIRE -160 112 -160 80
WIRE 80 128 80 80
WIRE 112 128 80 128
WIRE 320 128 320 64
WIRE 320 128 304 128
WIRE 432 128 400 128
WIRE 32 144 32 80
WIRE 336 192 304 192
WIRE 496 192 496 144
WIRE -160 224 -160 192
WIRE 32 224 32 208
WIRE 32 224 -160 224
WIRE 112 224 32 224
WIRE 336 224 336 192
WIRE -160 256 -160 224
FLAG 496 192 0
FLAG -160 256 0
FLAG 336 224 0
SYMBOL Optos\\MOC205 208 192 R0
SYMATTR InstName U1
SYMBOL diode 48 208 R180
WINDOW 0 24 64 Left 2
WINDOW 3 24 0 Left 2
SYMATTR InstName D1
SYMBOL voltage 496 48 R0
WINDOW 123 0 0 Left 0
WINDOW 39 0 0 Left 0
SYMATTR InstName V1
SYMATTR Value 3.3
SYMBOL voltage -160 96 R0
WINDOW 123 0 0 Left 0
WINDOW 39 0 0 Left 0
SYMATTR InstName V2
SYMATTR Value SINE(0 100 50)
SYMBOL res 0 64 R90
WINDOW 0 0 56 VBottom 2
WINDOW 3 32 56 VTop 2
SYMATTR InstName R1
SYMATTR Value 100
SYMBOL res 448 48 R90
WINDOW 0 0 56 VBottom 2
WINDOW 3 32 56 VTop 2
SYMATTR InstName R2
SYMATTR Value 10k
SYMBOL res 416 112 R90
WINDOW 0 0 56 VBottom 2
WINDOW 3 32 56 VTop 2
SYMATTR InstName R3
SYMATTR Value 1k
TEXT -194 326 Left 2 !.tran 50m
