Version 4
SHEET 1 880 680
WIRE 288 32 272 32
WIRE 400 32 368 32
WIRE 176 144 144 144
WIRE 272 144 272 32
WIRE 272 144 256 144
WIRE 288 144 272 144
WIRE 400 160 400 32
WIRE 400 160 352 160
WIRE 432 160 400 160
WIRE 144 192 144 144
WIRE 144 304 144 272
FLAG 144 304 0
SYMBOL voltage 144 176 R0
WINDOW 123 0 0 Left 0
WINDOW 39 0 0 Left 0
SYMATTR InstName V1
SYMATTR Value 1.25
SYMBOL res 272 128 R90
WINDOW 0 0 56 VBottom 2
WINDOW 3 32 56 VTop 2
SYMATTR InstName R1
SYMBOL Opamps\\AD712 320 96 R0
SYMATTR InstName U1
SYMBOL res 384 16 R90
WINDOW 0 0 56 VBottom 2
WINDOW 3 32 56 VTop 2
SYMATTR InstName R2
